*SPEF "IEEE 1481-1999"
*DESIGN "b15"
*DATE "Thu Dec 19 11:37:38 2013"
*VENDOR "Synopsys, Inc."
*PROGRAM "icc_shell"
*VERSION "E-2010.12-ICC-SP3-1"
*DESIGN_FLOW "SYNTHESIS"
*DIVIDER /
*DELIMITER :
*BUS_DELIMITER []
*T_UNIT 1.0 NS
*C_UNIT 1.0 PF
*R_UNIT 1.0 KOHM
*L_UNIT 1.0 HENRY

*PORTS

Address\[4\] O *L 0.000e+00 *S 1.125e+00 1.239e+00 
Address\[3\] O *L 0.000e+00 *S 1.125e+00 1.239e+00 
Address\[2\] O *L 0.000e+00 *S 1.125e+00 1.239e+00 
Address\[1\] O *L 0.000e+00 *S 1.125e+00 1.239e+00 
Address\[0\] O *L 0.000e+00 *S 1.125e+00 1.239e+00 
VSS B *L 0.000e+00 *S 0.000e+00 0.000e+00 
VDD B *L 0.000e+00 *S 0.000e+00 0.000e+00 
Address\[12\] O *L 0.000e+00 *S 1.564e+00 1.718e+00 
Address\[11\] O *L 0.000e+00 *S 1.564e+00 1.718e+00 
Address\[10\] O *L 0.000e+00 *S 1.564e+00 1.718e+00 
Address\[9\] O *L 0.000e+00 *S 1.564e+00 1.718e+00 
Address\[8\] O *L 0.000e+00 *S 1.564e+00 1.718e+00 
Address\[7\] O *L 0.000e+00 *S 1.125e+00 1.239e+00 
Address\[6\] O *L 0.000e+00 *S 1.125e+00 1.239e+00 
Address\[5\] O *L 0.000e+00 *S 1.125e+00 1.239e+00 
Address\[20\] O *L 0.000e+00 *S 1.125e+00 1.239e+00 
Address\[19\] O *L 0.000e+00 *S 1.123e+00 1.236e+00 
Address\[18\] O *L 0.000e+00 *S 1.125e+00 1.239e+00 
Address\[17\] O *L 0.000e+00 *S 1.125e+00 1.239e+00 
Address\[16\] O *L 0.000e+00 *S 1.125e+00 1.239e+00 
Address\[15\] O *L 0.000e+00 *S 1.564e+00 1.718e+00 
Address\[14\] O *L 0.000e+00 *S 1.564e+00 1.718e+00 
Address\[13\] O *L 0.000e+00 *S 1.564e+00 1.718e+00 
Address\[28\] O *L 0.000e+00 *S 1.125e+00 1.239e+00 
Address\[27\] O *L 0.000e+00 *S 1.125e+00 1.239e+00 
Address\[26\] O *L 0.000e+00 *S 1.125e+00 1.239e+00 
Address\[25\] O *L 0.000e+00 *S 1.125e+00 1.239e+00 
Address\[24\] O *L 0.000e+00 *S 1.125e+00 1.239e+00 
Address\[23\] O *L 0.000e+00 *S 1.125e+00 1.239e+00 
Address\[22\] O *L 0.000e+00 *S 1.125e+00 1.239e+00 
Address\[21\] O *L 0.000e+00 *S 1.125e+00 1.239e+00 
Datai\[2\] I *L 0.000e+00 *S 0.000e+00 0.000e+00 
Datai\[1\] I *L 0.000e+00 *S 0.000e+00 0.000e+00 
Datai\[0\] I *L 0.000e+00 *S 0.000e+00 0.000e+00 
BE_n\[3\] O *L 0.000e+00 *S 1.125e+00 1.239e+00 
BE_n\[2\] O *L 0.000e+00 *S 1.125e+00 1.239e+00 
BE_n\[1\] O *L 0.000e+00 *S 1.125e+00 1.239e+00 
BE_n\[0\] O *L 0.000e+00 *S 1.125e+00 1.239e+00 
Address\[29\] O *L 0.000e+00 *S 1.125e+00 1.239e+00 
Datai\[10\] I *L 0.000e+00 *S 0.000e+00 0.000e+00 
Datai\[9\] I *L 0.000e+00 *S 0.000e+00 0.000e+00 
Datai\[8\] I *L 0.000e+00 *S 0.000e+00 0.000e+00 
Datai\[7\] I *L 0.000e+00 *S 0.000e+00 0.000e+00 
Datai\[6\] I *L 0.000e+00 *S 0.000e+00 0.000e+00 
Datai\[5\] I *L 0.000e+00 *S 0.000e+00 0.000e+00 
Datai\[4\] I *L 0.000e+00 *S 0.000e+00 0.000e+00 
Datai\[3\] I *L 0.000e+00 *S 0.000e+00 0.000e+00 
Datai\[18\] I *L 0.000e+00 *S 0.000e+00 0.000e+00 
Datai\[17\] I *L 0.000e+00 *S 0.000e+00 0.000e+00 
Datai\[16\] I *L 0.000e+00 *S 0.000e+00 0.000e+00 
Datai\[15\] I *L 0.000e+00 *S 0.000e+00 0.000e+00 
Datai\[14\] I *L 0.000e+00 *S 0.000e+00 0.000e+00 
Datai\[13\] I *L 0.000e+00 *S 0.000e+00 0.000e+00 
Datai\[12\] I *L 0.000e+00 *S 0.000e+00 0.000e+00 
Datai\[11\] I *L 0.000e+00 *S 0.000e+00 0.000e+00 
Datai\[26\] I *L 0.000e+00 *S 0.000e+00 0.000e+00 
Datai\[25\] I *L 0.000e+00 *S 0.000e+00 0.000e+00 
Datai\[24\] I *L 0.000e+00 *S 0.000e+00 0.000e+00 
Datai\[23\] I *L 0.000e+00 *S 0.000e+00 0.000e+00 
Datai\[22\] I *L 0.000e+00 *S 0.000e+00 0.000e+00 
Datai\[21\] I *L 0.000e+00 *S 0.000e+00 0.000e+00 
Datai\[20\] I *L 0.000e+00 *S 0.000e+00 0.000e+00 
Datai\[19\] I *L 0.000e+00 *S 0.000e+00 0.000e+00 
Datao\[2\] O *L 0.000e+00 *S 1.125e+00 1.239e+00 
Datao\[1\] O *L 0.000e+00 *S 1.125e+00 1.239e+00 
Datao\[0\] O *L 0.000e+00 *S 1.125e+00 1.239e+00 
Datai\[31\] I *L 0.000e+00 *S 0.000e+00 0.000e+00 
Datai\[30\] I *L 0.000e+00 *S 0.000e+00 0.000e+00 
Datai\[29\] I *L 0.000e+00 *S 0.000e+00 0.000e+00 
Datai\[28\] I *L 0.000e+00 *S 0.000e+00 0.000e+00 
Datai\[27\] I *L 0.000e+00 *S 0.000e+00 0.000e+00 
Datao\[10\] O *L 0.000e+00 *S 1.125e+00 1.239e+00 
Datao\[9\] O *L 0.000e+00 *S 1.125e+00 1.239e+00 
Datao\[8\] O *L 0.000e+00 *S 1.125e+00 1.239e+00 
Datao\[7\] O *L 0.000e+00 *S 1.125e+00 1.239e+00 
Datao\[6\] O *L 0.000e+00 *S 1.125e+00 1.239e+00 
Datao\[5\] O *L 0.000e+00 *S 1.125e+00 1.239e+00 
Datao\[4\] O *L 0.000e+00 *S 1.125e+00 1.239e+00 
Datao\[3\] O *L 0.000e+00 *S 1.125e+00 1.239e+00 
Datao\[18\] O *L 0.000e+00 *S 1.125e+00 1.239e+00 
Datao\[17\] O *L 0.000e+00 *S 1.125e+00 1.239e+00 
Datao\[16\] O *L 0.000e+00 *S 1.125e+00 1.239e+00 
Datao\[15\] O *L 0.000e+00 *S 1.125e+00 1.239e+00 
Datao\[14\] O *L 0.000e+00 *S 1.125e+00 1.239e+00 
Datao\[13\] O *L 0.000e+00 *S 1.125e+00 1.239e+00 
Datao\[12\] O *L 0.000e+00 *S 1.125e+00 1.239e+00 
Datao\[11\] O *L 0.000e+00 *S 1.125e+00 1.239e+00 
Datao\[26\] O *L 0.000e+00 *S 1.125e+00 1.239e+00 
Datao\[25\] O *L 0.000e+00 *S 1.125e+00 1.239e+00 
Datao\[24\] O *L 0.000e+00 *S 1.125e+00 1.239e+00 
Datao\[23\] O *L 0.000e+00 *S 1.125e+00 1.239e+00 
Datao\[22\] O *L 0.000e+00 *S 1.125e+00 1.239e+00 
Datao\[21\] O *L 0.000e+00 *S 1.125e+00 1.239e+00 
Datao\[20\] O *L 0.000e+00 *S 1.125e+00 1.239e+00 
Datao\[19\] O *L 0.000e+00 *S 1.122e+00 1.236e+00 
CLOCK I *L 0.000e+00 *S 0.000e+00 0.000e+00 
NA_n I *L 0.000e+00 *S 0.000e+00 0.000e+00 
BS16_n I *L 0.000e+00 *S 0.000e+00 0.000e+00 
Datao\[31\] O *L 0.000e+00 *S 0.000e+00 0.000e+00 
Datao\[30\] O *L 0.000e+00 *S 1.125e+00 1.239e+00 
Datao\[29\] O *L 0.000e+00 *S 1.125e+00 1.239e+00 
Datao\[28\] O *L 0.000e+00 *S 1.125e+00 1.239e+00 
Datao\[27\] O *L 0.000e+00 *S 1.125e+00 1.239e+00 
READY_n I *L 0.000e+00 *S 0.000e+00 0.000e+00 
HOLD I *L 0.000e+00 *S 0.000e+00 0.000e+00 
RESET I *L 0.000e+00 *S 0.000e+00 0.000e+00 
test_se I *L 0.000e+00 *S 0.000e+00 0.000e+00 
test_si1 I *L 0.000e+00 *S 0.000e+00 0.000e+00 
test_si2 I *L 0.000e+00 *S 0.000e+00 0.000e+00 
test_si3 I *L 0.000e+00 *S 0.000e+00 0.000e+00 
test_si4 I *L 0.000e+00 *S 0.000e+00 0.000e+00 
test_si5 I *L 0.000e+00 *S 0.000e+00 0.000e+00 
test_si6 I *L 0.000e+00 *S 0.000e+00 0.000e+00 
test_si7 I *L 0.000e+00 *S 0.000e+00 0.000e+00 
test_si8 I *L 0.000e+00 *S 0.000e+00 0.000e+00 
test_si9 I *L 0.000e+00 *S 0.000e+00 0.000e+00 
test_si10 I *L 0.000e+00 *S 0.000e+00 0.000e+00 
test_si11 I *L 0.000e+00 *S 0.000e+00 0.000e+00 
test_si12 I *L 0.000e+00 *S 0.000e+00 0.000e+00 
test_si13 I *L 0.000e+00 *S 0.000e+00 0.000e+00 
test_si14 I *L 0.000e+00 *S 0.000e+00 0.000e+00 
test_si15 I *L 0.000e+00 *S 0.000e+00 0.000e+00 
test_si16 I *L 0.000e+00 *S 0.000e+00 0.000e+00 
test_si17 I *L 0.000e+00 *S 0.000e+00 0.000e+00 
test_si18 I *L 0.000e+00 *S 0.000e+00 0.000e+00 
test_si19 I *L 0.000e+00 *S 0.000e+00 0.000e+00 
test_si20 I *L 0.000e+00 *S 0.000e+00 0.000e+00 
W_R_n O *L 0.000e+00 *S 1.125e+00 1.239e+00 
D_C_n O *L 0.000e+00 *S 7.118e-01 7.877e-01 
M_IO_n O *L 0.000e+00 *S 1.125e+00 1.239e+00 
ADS_n O *L 0.000e+00 *S 1.124e+00 1.238e+00 
test_so1 O *L 0.000e+00 *S 1.123e+00 1.236e+00 
test_so2 O *L 0.000e+00 *S 1.123e+00 1.237e+00 
test_so3 O *L 0.000e+00 *S 1.122e+00 1.236e+00 
test_so4 O *L 0.000e+00 *S 2.035e+00 2.233e+00 
test_so5 O *L 0.000e+00 *S 1.568e+00 1.723e+00 
test_so6 O *L 0.000e+00 *S 2.033e+00 2.231e+00 
test_so7 O *L 0.000e+00 *S 3.077e+00 3.370e+00 
test_so8 O *L 0.000e+00 *S 3.077e+00 3.370e+00 
test_so9 O *L 0.000e+00 *S 1.125e+00 1.239e+00 
test_so10 O *L 0.000e+00 *S 7.118e-01 7.877e-01 
test_so11 O *L 0.000e+00 *S 1.124e+00 1.238e+00 
test_so12 O *L 0.000e+00 *S 1.125e+00 1.239e+00 
test_so13 O *L 0.000e+00 *S 7.118e-01 7.877e-01 
test_so14 O *L 0.000e+00 *S 1.124e+00 1.238e+00 
test_so15 O *L 0.000e+00 *S 2.034e+00 2.232e+00 
test_so16 O *L 0.000e+00 *S 2.533e+00 2.776e+00 
test_so17 O *L 0.000e+00 *S 1.564e+00 1.719e+00 
test_so18 O *L 0.000e+00 *S 3.631e+00 3.975e+00 
test_so19 O *L 0.000e+00 *S 4.235e+00 4.635e+00 
test_so20 O *L 0.000e+00 *S 1.125e+00 1.239e+00 

*D_NET n110 1.948e-02
*CONN
*I U4:Q O
*I U5:IN I
*I U6:IN I
*I U7:IN I
*I U9:IN I
*I U8:IN I
*CAP
1 U4:Q 6.384e-05
2 U5:IN 7.810e-06
3 U6:IN 1.679e-03
4 U7:IN 5.823e-03
5 U9:IN 1.533e-03
6 U8:IN 6.227e-04
7 n110:0 8.112e-05
8 n110:1 1.737e-04
9 n110:2 6.697e-04
10 n110:3 2.016e-03
11 n110:4 6.808e-03
*RES
1 n110:0 U5:IN 8.564e-05
2 n110:1 U6:IN 1.801e-03
3 n110:4 U7:IN 5.803e-02
4 n110:2 U9:IN 1.527e-03
5 n110:3 U8:IN 6.828e-03
6 U4:Q n110:0 6.602e-04
7 n110:0 n110:1 9.793e-05
8 U7:IN n110:2 5.485e-03
9 U9:IN n110:3 1.441e-02
10 U6:IN n110:4 1.567e-02
*END

*D_NET n197 8.615e-04
*CONN
*I U150:Q O
*I U14:IN I
*CAP
1 U150:Q 1.592e-04
2 U14:IN 2.716e-04
3 n197:0 4.308e-04
*RES
1 n197:0 U14:IN 2.732e-03
2 U150:Q n197:0 1.699e-03
*END

*D_NET CTS_clock_CTO_delay11 4.797e-04
*CONN
*I NBUFFX2_G1B1I4:IN I
*I CTS_clock_CTO_delay1:Q O
*CAP
1 NBUFFX2_G1B1I4:IN 1.572e-04
2 CTS_clock_CTO_delay1:Q 8.267e-05
3 CTS_clock_CTO_delay11:0 2.399e-04
*RES
1 CTS_clock_CTO_delay11:0 NBUFFX2_G1B1I4:IN 1.699e-03
2 CTS_clock_CTO_delay1:Q CTS_clock_CTO_delay11:0 7.704e-04
*END

*D_NET n5306 9.628e-04
*CONN
*I U4889:Q O
*I U4888:IN5 I
*CAP
1 U4889:Q 1.817e-04
2 U4888:IN5 2.997e-04
3 n5306:0 4.814e-04
*RES
1 n5306:0 U4888:IN5 3.002e-03
2 U4889:Q n5306:0 1.883e-03
*END

*D_NET n5304 1.005e-02
*CONN
*I U4888:Q O
*I U4885:IN1 I
*CAP
1 U4888:Q 4.672e-03
2 U4885:IN1 3.521e-04
3 n5304:0 5.024e-03
*RES
1 n5304:0 U4885:IN1 3.120e-03
2 U4888:Q n5304:0 4.597e-02
*END

*D_NET n5305 1.478e-03
*CONN
*I U4887:Q O
*I U4886:IN5 I
*CAP
1 U4887:Q 6.202e-04
2 U4886:IN5 1.188e-04
3 n5305:0 7.390e-04
*RES
1 n5305:0 U4886:IN5 9.808e-04
2 U4887:Q n5305:0 5.812e-03
*END

*D_NET n5302 4.628e-03
*CONN
*I U4882:Q O
*I U4881:IN5 I
*CAP
1 U4882:Q 7.144e-05
2 U4881:IN5 2.243e-03
3 n5302:0 2.314e-03
*RES
1 n5302:0 U4881:IN5 2.296e-02
2 U4882:Q n5302:0 6.078e-04
*END

*D_NET n5301 1.495e-03
*CONN
*I U4880:Q O
*I U4879:IN5 I
*CAP
1 U4880:Q 3.530e-04
2 U4879:IN5 3.947e-04
3 n5301:0 7.477e-04
*RES
1 n5301:0 U4879:IN5 3.903e-03
2 U4880:Q n5301:0 3.289e-03
*END

*D_NET n5297 1.056e-03
*CONN
*I U4873:IN3 I
*I U4879:Q O
*CAP
1 U4873:IN3 5.214e-04
2 U4879:Q 6.812e-06
3 n5297:0 5.282e-04
*RES
1 n5297:0 U4873:IN3 4.698e-03
2 U4879:Q n5297:0 5.630e-05
*END

*D_NET n5300 4.710e-04
*CONN
*I U4877:IN5 I
*I U4878:Q O
*CAP
1 U4877:IN5 1.859e-04
2 U4878:Q 4.961e-05
3 n5300:0 2.355e-04
*RES
1 n5300:0 U4877:IN5 1.883e-03
2 U4878:Q n5300:0 4.193e-04
*END

*D_NET n5298 1.041e-02
*CONN
*I U4877:Q O
*I U4874:IN1 I
*CAP
1 U4877:Q 4.875e-03
2 U4874:IN1 3.314e-04
3 n5298:0 5.206e-03
*RES
1 n5298:0 U4874:IN1 2.940e-03
2 U4877:Q n5298:0 4.786e-02
*END

*D_NET n5299 1.197e-03
*CONN
*I U4876:Q O
*I U4875:IN5 I
*CAP
1 U4876:Q 4.796e-04
2 U4875:IN5 1.190e-04
3 n5299:0 5.986e-04
*RES
1 n5299:0 U4875:IN5 9.810e-04
2 U4876:Q n5299:0 4.429e-03
*END

*D_NET n5296 5.668e-03
*CONN
*I U4871:Q O
*I U4870:IN5 I
*CAP
1 U4871:Q 5.689e-04
2 U4870:IN5 2.265e-03
3 n5296:0 2.834e-03
*RES
1 n5296:0 U4870:IN5 2.313e-02
2 U4871:Q n5296:0 5.812e-03
*END

*D_NET n5295 8.591e-04
*CONN
*I U4869:Q O
*I U4868:IN5 I
*CAP
1 U4869:Q 4.034e-04
2 U4868:IN5 2.614e-05
3 n5295:0 4.295e-04
*RES
1 n5295:0 U4868:IN5 2.393e-04
2 U4869:Q n5295:0 3.539e-03
*END

*D_NET n5291 1.061e-03
*CONN
*I U4862:IN3 I
*I U4868:Q O
*CAP
1 U4862:IN3 3.524e-04
2 U4868:Q 1.782e-04
3 n5291:0 5.306e-04
*RES
1 n5291:0 U4862:IN3 2.944e-03
2 U4868:Q n5291:0 1.565e-03
*END

*D_NET n5294 7.378e-04
*CONN
*I U4866:IN5 I
*I U4867:Q O
*CAP
1 U4866:IN5 3.549e-04
2 U4867:Q 1.405e-05
3 n5294:0 3.689e-04
*RES
1 n5294:0 U4866:IN5 3.289e-03
2 U4867:Q n5294:0 1.267e-04
*END

*D_NET n5292 9.266e-03
*CONN
*I U4863:IN1 I
*I U4866:Q O
*CAP
1 U4863:IN1 4.618e-03
2 U4866:Q 1.489e-05
3 n5292:0 4.633e-03
*RES
1 n5292:0 U4863:IN1 4.431e-02
2 U4866:Q n5292:0 1.221e-04
*END

*D_NET n5293 1.727e-03
*CONN
*I U4865:Q O
*I U4864:IN5 I
*CAP
1 U4865:Q 6.354e-04
2 U4864:IN5 2.281e-04
3 n5293:0 8.635e-04
*RES
1 n5293:0 U4864:IN5 2.063e-03
2 U4865:Q n5293:0 5.812e-03
*END

*D_NET n5290 4.051e-03
*CONN
*I U4860:Q O
*I U4859:IN5 I
*CAP
1 U4860:Q 4.382e-04
2 U4859:IN5 1.588e-03
3 n5290:0 2.026e-03
*RES
1 n5290:0 U4859:IN5 1.575e-02
2 U4860:Q n5290:0 4.022e-03
*END

*D_NET n5289 4.274e-04
*CONN
*I U4858:Q O
*I U4857:IN5 I
*CAP
1 U4858:Q 1.567e-05
2 U4857:IN5 1.980e-04
3 n5289:0 2.137e-04
*RES
1 n5289:0 U4857:IN5 1.741e-03
2 U4858:Q n5289:0 1.252e-04
*END

*D_NET n5285 3.807e-03
*CONN
*I U4857:Q O
*I U4851:IN3 I
*CAP
1 U4857:Q 7.426e-04
2 U4851:IN3 1.161e-03
3 n5285:0 1.903e-03
*RES
1 n5285:0 U4851:IN3 1.092e-02
2 U4857:Q n5285:0 7.297e-03
*END

*D_NET n5288 1.185e-03
*CONN
*I U4856:Q O
*I U4855:IN5 I
*CAP
1 U4856:Q 1.511e-04
2 U4855:IN5 4.415e-04
3 n5288:0 5.925e-04
*RES
1 n5288:0 U4855:IN5 4.079e-03
2 U4856:Q n5288:0 1.531e-03
*END

*D_NET n5286 1.141e-02
*CONN
*I U4855:Q O
*I U4852:IN1 I
*CAP
1 U4855:Q 5.159e-03
2 U4852:IN1 5.460e-04
3 n5286:0 5.705e-03
*RES
1 n5286:0 U4852:IN1 4.921e-03
2 U4855:Q n5286:0 5.114e-02
*END

*D_NET n5287 1.422e-03
*CONN
*I U4854:Q O
*I U4853:IN5 I
*CAP
1 U4854:Q 4.249e-04
2 U4853:IN5 2.860e-04
3 n5287:0 7.109e-04
*RES
1 n5287:0 U4853:IN5 2.603e-03
2 U4854:Q n5287:0 4.022e-03
*END

*D_NET n5284 3.568e-03
*CONN
*I U4848:IN5 I
*I U4849:Q O
*CAP
1 U4848:IN5 1.051e-03
2 U4849:Q 7.330e-04
3 n5284:0 1.784e-03
*RES
1 n5284:0 U4848:IN5 1.264e-02
2 U4849:Q n5284:0 8.078e-03
*END

*D_NET n5283 6.647e-04
*CONN
*I U4846:IN5 I
*I U4847:Q O
*CAP
1 U4846:IN5 1.505e-05
2 U4847:Q 3.173e-04
3 n5283:0 3.323e-04
*RES
1 n5283:0 U4846:IN5 1.252e-04
2 U4847:Q n5283:0 2.940e-03
*END

*D_NET n5279 8.922e-03
*CONN
*I U4846:Q O
*I U4840:IN3 I
*CAP
1 U4846:Q 9.756e-04
2 U4840:IN3 3.485e-03
3 n5279:0 4.461e-03
*RES
1 n5279:0 U4840:IN3 3.362e-02
2 U4846:Q n5279:0 9.772e-03
*END

*D_NET n5282 2.070e-03
*CONN
*I U4845:Q O
*I U4844:IN5 I
*CAP
1 U4845:Q 5.309e-04
2 U4844:IN5 5.040e-04
3 n5282:0 1.035e-03
*RES
1 n5282:0 U4844:IN5 5.127e-03
2 U4845:Q n5282:0 5.812e-03
*END

*D_NET n5281 7.360e-04
*CONN
*I U4842:IN5 I
*I U4843:Q O
*CAP
1 U4842:IN5 3.545e-04
2 U4843:Q 1.345e-05
3 n5281:0 3.680e-04
*RES
1 n5281:0 U4842:IN5 3.539e-03
2 U4843:Q n5281:0 1.210e-04
*END

*D_NET n5280 1.026e-02
*CONN
*I U4841:IN2 I
*I U4842:Q O
*CAP
1 U4841:IN2 4.914e-03
2 U4842:Q 2.164e-04
3 n5280:0 5.131e-03
*RES
1 n5280:0 U4841:IN2 4.957e-02
2 U4842:Q n5280:0 2.137e-03
*END

*D_NET n5278 3.628e-03
*CONN
*I U4838:IN5 I
*I U4839:Q O
*CAP
1 U4838:IN5 9.580e-04
2 U4839:Q 8.558e-04
3 n5278:0 1.814e-03
*RES
1 n5278:0 U4838:IN5 1.085e-02
2 U4839:Q n5278:0 9.446e-03
*END

*D_NET n5277 6.878e-04
*CONN
*I U4837:Q O
*I U4836:IN5 I
*CAP
1 U4837:Q 1.468e-05
2 U4836:IN5 3.292e-04
3 n5277:0 3.439e-04
*RES
1 n5277:0 U4836:IN5 3.116e-03
2 U4837:Q n5277:0 1.252e-04
*END

*D_NET n109 3.555e-03
*CONN
*I U3:Q O
*I U4:IN I
*CAP
1 U3:Q 1.082e-03
2 U4:IN 6.955e-04
3 n109:0 1.777e-03
*RES
1 n109:0 U4:IN 7.782e-03
2 U3:Q n109:0 1.196e-02
*END

*D_NET n5257 2.246e-03
*CONN
*I U4817:Q O
*I U4805:IN1 I
*I U4791:IN1 I
*CAP
1 U4817:Q 2.420e-04
2 U4805:IN1 3.726e-04
3 U4791:IN1 2.176e-04
4 n5257:0 8.811e-04
5 n5257:1 5.329e-04
*RES
1 n5257:0 U4805:IN1 3.414e-03
2 n5257:0 U4791:IN1 2.162e-03
3 n5257:1 n5257:0 2.892e-03
4 U4817:Q n5257:1 2.217e-03
*END

*D_NET n5266 3.142e-03
*CONN
*I U4815:IN5 I
*I U4816:Q O
*CAP
1 U4815:IN5 1.247e-03
2 U4816:Q 3.245e-04
3 n5266:0 1.571e-03
*RES
1 n5266:0 U4815:IN5 1.467e-02
2 U4816:Q n5266:0 3.370e-03
*END

*D_NET n5265 5.897e-04
*CONN
*I U4813:IN5 I
*I U4814:Q O
*CAP
1 U4813:IN5 1.463e-04
2 U4814:Q 1.486e-04
3 n5265:0 2.948e-04
*RES
1 n5265:0 U4813:IN5 1.531e-03
2 U4814:Q n5265:0 1.748e-03
*END

*D_NET n5261 1.046e-02
*CONN
*I U4813:Q O
*I U4807:IN3 I
*CAP
1 U4813:Q 8.088e-04
2 U4807:IN3 4.420e-03
3 n5261:0 5.228e-03
*RES
1 n5261:0 U4807:IN3 4.336e-02
2 U4813:Q n5261:0 7.297e-03
*END

*D_NET n5264 1.468e-03
*CONN
*I U4812:Q O
*I U4811:IN5 I
*CAP
1 U4812:Q 6.176e-04
2 U4811:IN5 1.163e-04
3 n5264:0 7.340e-04
*RES
1 n5264:0 U4811:IN5 9.827e-04
2 U4812:Q n5264:0 6.220e-03
*END

*D_NET n5263 7.739e-04
*CONN
*I U4809:IN5 I
*I U4810:Q O
*CAP
1 U4809:IN5 3.305e-04
2 U4810:Q 5.641e-05
3 n5263:0 3.869e-04
*RES
1 n5263:0 U4809:IN5 3.289e-03
2 U4810:Q n5263:0 4.812e-04
*END

*D_NET n5262 8.138e-03
*CONN
*I U4808:IN2 I
*I U4809:Q O
*CAP
1 U4808:IN2 3.883e-03
2 U4809:Q 1.856e-04
3 n5262:0 4.069e-03
*RES
1 n5262:0 U4808:IN2 3.919e-02
2 U4809:Q n5262:0 1.776e-03
*END

*D_NET n5243 1.419e-03
*CONN
*I U4761:IN1 I
*I U4804:QN O
*CAP
1 U4761:IN1 1.023e-05
2 U4804:QN 6.991e-04
3 n5243:0 7.093e-04
*RES
1 n5243:0 U4761:IN1 8.623e-05
2 U4804:QN n5243:0 6.859e-03
*END

*D_NET n5260 9.865e-04
*CONN
*I U4803:Q O
*I U4802:IN3 I
*CAP
1 U4803:Q 3.258e-04
2 U4802:IN3 1.675e-04
3 n5260:0 4.932e-04
*RES
1 n5260:0 U4802:IN3 1.566e-03
2 U4803:Q n5260:0 3.136e-03
*END

*D_NET n5259 8.354e-04
*CONN
*I U4802:Q O
*I U4801:D I
*CAP
1 U4802:Q 3.460e-04
2 U4801:D 7.173e-05
3 n5259:0 4.177e-04
*RES
1 n5259:0 U4801:D 5.698e-04
2 U4802:Q n5259:0 3.410e-03
*END

*D_NET n5252 1.213e-03
*CONN
*I U4799:IN3 I
*I U4800:QN O
*I U4772:IN2 I
*CAP
1 U4799:IN3 2.540e-04
2 U4800:QN 3.179e-04
3 U4772:IN2 3.472e-05
4 n5252:0 1.661e-04
5 n5252:1 4.405e-04
*RES
1 n5252:1 U4799:IN3 2.249e-03
2 n5252:0 U4772:IN2 3.299e-04
3 U4800:QN n5252:0 1.164e-03
4 U4800:QN n5252:1 1.772e-03
*END

*D_NET n5258 2.047e-03
*CONN
*I U4872:QN O
*I U4799:IN2 I
*I U4795:IN2 I
*I U4850:IN2 I
*CAP
1 U4872:QN 1.659e-04
2 U4799:IN2 2.763e-04
3 U4795:IN2 2.826e-04
4 U4850:IN2 1.658e-04
5 n5258:0 4.670e-04
6 n5258:1 2.990e-04
7 n5258:2 3.907e-04
*RES
1 n5258:0 U4799:IN2 2.422e-03
2 n5258:0 U4795:IN2 5.405e-04
3 n5258:2 U4850:IN2 1.453e-03
4 n5258:1 n5258:0 1.247e-03
5 U4872:QN n5258:1 1.454e-03
6 U4795:IN2 n5258:2 2.107e-03
*END

*D_NET n5255 2.469e-03
*CONN
*I U4799:Q O
*I U4784:IN3 I
*I U4798:IN2 I
*CAP
1 U4799:Q 4.077e-04
2 U4784:IN3 1.160e-06
3 U4798:IN2 3.826e-04
4 n5255:0 4.443e-04
5 n5255:1 1.233e-03
*RES
1 n5255:0 U4784:IN3 1.126e-05
2 n5255:1 U4798:IN2 3.507e-03
3 n5255:1 n5255:0 4.063e-03
4 U4799:Q n5255:1 3.959e-03
*END

*D_NET n5248 1.056e-03
*CONN
*I U4797:QN O
*I U4771:IN2 I
*I U4796:IN2 I
*CAP
1 U4797:QN 5.380e-05
2 U4771:IN2 2.931e-04
3 U4796:IN2 1.147e-04
4 n5248:0 1.200e-04
5 n5248:1 4.740e-04
*RES
1 n5248:1 U4771:IN2 2.516e-03
2 n5248:1 U4796:IN2 9.915e-04
3 U4797:QN n5248:0 4.619e-04
4 n5248:0 n5248:1 5.717e-04
*END

*D_NET n5253 2.295e-03
*CONN
*I U4795:IN1 I
*I U4796:Q O
*I U4775:IN2 I
*CAP
1 U4795:IN1 1.635e-04
2 U4796:Q 3.916e-04
3 U4775:IN2 2.119e-04
4 n5253:0 9.357e-04
5 n5253:1 5.924e-04
*RES
1 n5253:0 U4795:IN1 1.501e-03
2 n5253:1 U4775:IN2 1.945e-03
3 U4796:Q n5253:0 3.510e-03
4 n5253:0 n5253:1 3.411e-03
*END

*D_NET n5256 1.572e-03
*CONN
*I U4795:Q O
*I U4794:IN3 I
*I U4789:IN2 I
*CAP
1 U4795:Q 3.344e-04
2 U4794:IN3 7.343e-05
3 U4789:IN2 5.970e-05
4 n5256:0 3.781e-04
5 n5256:1 7.263e-04
*RES
1 n5256:1 U4794:IN3 6.402e-04
2 n5256:0 U4789:IN2 5.789e-04
3 n5256:1 n5256:0 2.777e-03
4 U4795:Q n5256:1 3.243e-03
*END

*D_NET n5235 5.270e-03
*CONN
*I U4793:QN O
*I U4752:IN4 I
*I U4748:IN1 I
*I U4792:IN2 I
*I U4776:IN I
*CAP
1 U4793:QN 1.979e-04
2 U4752:IN4 1.611e-04
3 U4748:IN1 1.733e-03
4 U4792:IN2 1.944e-05
5 U4776:IN 4.651e-05
6 n5235:0 3.877e-04
7 n5235:1 5.137e-04
8 n5235:2 3.605e-04
9 n5235:3 1.849e-03
*RES
1 n5235:1 U4752:IN4 1.639e-03
2 n5235:2 U4748:IN1 2.067e-03
3 n5235:0 U4792:IN2 1.979e-04
4 n5235:0 U4776:IN 4.674e-04
5 n5235:3 n5235:0 3.233e-03
6 U4793:QN n5235:1 1.988e-03
7 n5235:1 n5235:2 1.575e-03
8 U4748:IN1 n5235:3 1.555e-02
*END

*D_NET n5244 1.115e-03
*CONN
*I U4792:QN O
*I U4763:IN1 I
*CAP
1 U4792:QN 3.560e-04
2 U4763:IN1 2.017e-04
3 n5244:0 5.577e-04
*RES
1 n5244:0 U4763:IN1 1.864e-03
2 U4792:QN n5244:0 3.354e-03
*END

*D_NET n5250 2.066e-03
*CONN
*I U4771:IN4 I
*I U4850:IN1 I
*I U4883:QN O
*I U4789:IN4 I
*I U4784:IN2 I
*CAP
1 U4771:IN4 5.933e-05
2 U4850:IN1 5.169e-07
3 U4883:QN 4.062e-04
4 U4789:IN4 1.464e-04
5 U4784:IN2 4.764e-05
6 n5250:0 4.326e-04
7 n5250:1 1.931e-04
8 n5250:2 2.099e-04
9 n5250:3 5.700e-04
*RES
1 n5250:0 U4771:IN4 5.687e-04
2 n5250:0 U4850:IN1 4.725e-06
3 n5250:2 U4789:IN4 9.010e-06
4 n5250:1 U4784:IN2 4.567e-04
5 n5250:3 n5250:0 3.408e-03
6 U4789:IN4 n5250:1 1.329e-03
7 U4883:QN n5250:2 1.910e-03
8 U4883:QN n5250:3 1.891e-03
*END

*D_NET n5254 7.632e-04
*CONN
*I U4780:QN O
*I U4779:IN2 I
*CAP
1 U4780:QN 1.608e-04
2 U4779:IN2 2.208e-04
3 n5254:0 3.816e-04
*RES
1 n5254:0 U4779:IN2 2.098e-03
2 U4780:QN n5254:0 1.505e-03
*END

*D_NET n5245 1.306e-03
*CONN
*I U4763:IN2 I
*I U4777:QN O
*CAP
1 U4763:IN2 5.267e-04
2 U4777:QN 1.265e-04
3 n5245:0 6.532e-04
*RES
1 n5245:0 U4763:IN2 5.352e-03
2 U4777:QN n5245:0 1.093e-03
*END

*D_NET n5247 4.397e-04
*CONN
*I U4773:QN O
*I U4764:IN1 I
*CAP
1 U4773:QN 6.733e-05
2 U4764:IN1 1.525e-04
3 n5247:0 2.199e-04
*RES
1 n5247:0 U4764:IN1 1.352e-03
2 U4773:QN n5247:0 5.640e-04
*END

*D_NET n5246 8.334e-04
*CONN
*I U4769:QN O
*I U4767:IN1 I
*I U4763:IN4 I
*CAP
1 U4769:QN 6.380e-07
2 U4767:IN1 2.234e-04
3 U4763:IN4 1.226e-04
4 n5246:0 7.072e-05
5 n5246:1 4.161e-04
*RES
1 n5246:1 U4767:IN1 2.068e-03
2 n5246:1 U4763:IN4 1.140e-03
3 U4769:QN n5246:0 5.906e-06
4 n5246:0 n5246:1 6.515e-04
*END

*D_NET n5242 2.219e-04
*CONN
*I U4760:Q O
*I U4759:IN1 I
*CAP
1 U4760:Q 2.699e-05
2 U4759:IN1 8.396e-05
3 n5242:0 1.109e-04
*RES
1 n5242:0 U4759:IN1 7.428e-04
2 U4760:Q n5242:0 2.262e-04
*END

*D_NET n5237 5.802e-04
*CONN
*I U4759:QN O
*I U4752:IN1 I
*CAP
1 U4759:QN 1.775e-05
2 U4752:IN1 2.723e-04
3 n5237:0 2.901e-04
*RES
1 n5237:0 U4752:IN1 2.648e-03
2 U4759:QN n5237:0 1.542e-04
*END

*D_NET n5241 7.039e-04
*CONN
*I U4758:Q O
*I U4757:IN1 I
*CAP
1 U4758:Q 2.122e-04
2 U4757:IN1 1.398e-04
3 n5241:0 3.520e-04
*RES
1 n5241:0 U4757:IN1 1.284e-03
2 U4758:Q n5241:0 2.044e-03
*END

*D_NET n5238 8.787e-04
*CONN
*I U4757:QN O
*I U4752:IN3 I
*CAP
1 U4757:QN 1.777e-04
2 U4752:IN3 2.617e-04
3 n5238:0 4.394e-04
*RES
1 n5238:0 U4752:IN3 2.539e-03
2 U4757:QN n5238:0 1.760e-03
*END

*D_NET n5236 2.500e-03
*CONN
*I U4748:IN2 I
*I U4753:IN3 I
*I U4756:QN O
*CAP
1 U4748:IN2 7.776e-05
2 U4753:IN3 3.372e-04
3 U4756:QN 3.278e-04
4 n5236:0 9.222e-04
5 n5236:1 8.351e-04
*RES
1 n5236:0 U4748:IN2 7.277e-04
2 n5236:0 U4753:IN3 3.414e-03
3 n5236:1 n5236:0 5.135e-03
4 U4756:QN n5236:1 3.068e-03
*END

*D_NET n5240 5.559e-04
*CONN
*I U4754:IN1 I
*I U4755:Q O
*CAP
1 U4754:IN1 1.472e-04
2 U4755:Q 1.308e-04
3 n5240:0 2.780e-04
*RES
1 n5240:0 U4754:IN1 1.370e-03
2 U4755:Q n5240:0 1.191e-03
*END

*D_NET n5239 5.489e-04
*CONN
*I U4752:IN5 I
*I U4753:Q O
*CAP
1 U4752:IN5 3.136e-05
2 U4753:Q 2.431e-04
3 n5239:0 2.744e-04
*RES
1 n5239:0 U4752:IN5 2.723e-04
2 U4753:Q n5239:0 2.285e-03
*END

*D_NET n5233 7.402e-04
*CONN
*I U4750:Q O
*I U4747:IN1 I
*CAP
1 U4750:Q 2.991e-04
2 U4747:IN1 7.100e-05
3 n5233:0 3.701e-04
*RES
1 n5233:0 U4747:IN1 6.203e-04
2 U4750:Q n5233:0 3.170e-03
*END

*D_NET n5234 5.094e-04
*CONN
*I U4748:Q O
*I U4747:IN5 I
*CAP
1 U4748:Q 1.429e-04
2 U4747:IN5 1.118e-04
3 n5234:0 2.547e-04
*RES
1 n5234:0 U4747:IN5 9.328e-04
2 U4748:Q n5234:0 1.337e-03
*END

*D_NET n5311 2.877e-03
*CONN
*I U4917:IN1 I
*I U4921:QN O
*CAP
1 U4917:IN1 5.332e-04
2 U4921:QN 9.055e-04
3 n5311:0 1.439e-03
*RES
1 n5311:0 U4917:IN1 5.437e-03
2 U4921:QN n5311:0 9.384e-03
*END

*D_NET n5312 5.355e-03
*CONN
*I U4917:IN2 I
*I U4920:QN O
*CAP
1 U4917:IN2 3.430e-04
2 U4920:QN 2.334e-03
3 n5312:0 2.677e-03
*RES
1 n5312:0 U4917:IN2 3.524e-03
2 U4920:QN n5312:0 2.500e-02
*END

*D_NET n5313 1.879e-03
*CONN
*I U4919:QN O
*I U4917:IN3 I
*CAP
1 U4919:QN 9.032e-04
2 U4917:IN3 3.621e-05
3 n5313:0 9.394e-04
*RES
1 n5313:0 U4917:IN3 3.303e-04
2 U4919:QN n5313:0 1.032e-02
*END

*D_NET n5314 2.293e-03
*CONN
*I U4918:QN O
*I U4917:IN4 I
*CAP
1 U4918:QN 1.064e-05
2 U4917:IN4 1.136e-03
3 n5314:0 1.146e-03
*RES
1 n5314:0 U4917:IN4 1.207e-02
2 U4918:QN n5314:0 9.214e-05
*END

*D_NET n5310 3.616e-03
*CONN
*I U4916:IN2 I
*I U4917:QN O
*CAP
1 U4916:IN2 7.934e-04
2 U4917:QN 1.015e-03
3 n5310:0 1.808e-03
*RES
1 n5310:0 U4916:IN2 7.702e-03
2 U4917:QN n5310:0 1.007e-02
*END

*D_NET n5308 4.704e-03
*CONN
*I U4893:Q O
*I U4892:IN5 I
*CAP
1 U4893:Q 3.882e-04
2 U4892:IN5 1.964e-03
3 n5308:0 2.352e-03
*RES
1 n5308:0 U4892:IN5 2.024e-02
2 U4893:Q n5308:0 4.022e-03
*END

*D_NET n5307 8.431e-04
*CONN
*I U4890:IN5 I
*I U4891:Q O
*CAP
1 U4890:IN5 3.701e-04
2 U4891:Q 5.148e-05
3 n5307:0 4.216e-04
*RES
1 n5307:0 U4890:IN5 3.539e-03
2 U4891:Q n5307:0 4.194e-04
*END

*D_NET n5303 1.366e-03
*CONN
*I U4890:Q O
*I U4884:IN3 I
*CAP
1 U4890:Q 3.068e-04
2 U4884:IN3 3.763e-04
3 n5303:0 6.831e-04
*RES
1 n5303:0 U4884:IN3 3.535e-03
2 U4890:Q n5303:0 2.944e-03
*END

*D_NET n5230 4.865e-04
*CONN
*I U4741:Q O
*I U4740:IN3 I
*CAP
1 U4741:Q 2.009e-04
2 U4740:IN3 4.232e-05
3 n5230:0 2.432e-04
*RES
1 n5230:0 U4740:IN3 3.616e-04
2 U4741:Q n5230:0 1.861e-03
*END

*D_NET n191 3.822e-03
*CONN
*I U4753:IN2 I
*I U4747:IN4 I
*I U4743:IN6 I
*I U4740:IN2 I
*I U4765:IN2 I
*I U146:QN O
*CAP
1 U4753:IN2 1.490e-04
2 U4747:IN4 4.903e-04
3 U4743:IN6 3.822e-04
4 U4740:IN2 1.400e-04
5 U4765:IN2 4.075e-04
6 U146:QN 1.485e-04
7 n191:0 1.522e-04
8 n191:1 3.419e-04
9 n191:2 4.316e-04
10 n191:3 6.652e-04
11 n191:4 5.135e-04
*RES
1 n191:0 U4753:IN2 1.510e-03
2 n191:4 U4747:IN4 4.936e-03
3 n191:2 U4743:IN6 3.606e-03
4 n191:3 U4740:IN2 6.258e-04
5 n191:3 U4765:IN2 4.130e-03
6 U4747:IN4 n191:0 3.152e-05
7 U146:QN n191:1 1.505e-03
8 U4740:IN2 n191:2 7.390e-04
9 n191:1 n191:3 1.886e-03
10 U4743:IN6 n191:4 2.572e-04
*END

*D_NET n5227 3.514e-03
*CONN
*I U4735:IN I
*I U4737:IN2 I
*I U4738:Q O
*CAP
1 U4735:IN 7.069e-04
2 U4737:IN2 4.578e-04
3 U4738:Q 5.922e-04
4 n5227:0 7.305e-04
5 n5227:1 1.026e-03
*RES
1 n5227:0 U4735:IN 7.536e-03
2 n5227:1 U4737:IN2 4.629e-03
3 U4737:IN2 n5227:0 2.521e-04
4 U4738:Q n5227:1 6.328e-03
*END

*D_NET n5228 1.259e-03
*CONN
*I U4736:IN1 I
*I U4737:QN O
*CAP
1 U4736:IN1 4.890e-04
2 U4737:QN 1.404e-04
3 n5228:0 6.294e-04
*RES
1 n5228:0 U4736:IN1 4.845e-03
2 U4737:QN n5228:0 1.360e-03
*END

*D_NET n5223 4.159e-04
*CONN
*I U4728:Q O
*I U4724:IN1 I
*CAP
1 U4728:Q 1.373e-05
2 U4724:IN1 1.942e-04
3 n5223:0 2.079e-04
*RES
1 n5223:0 U4724:IN1 1.824e-03
2 U4728:Q n5223:0 1.229e-04
*END

*D_NET n5224 1.014e-03
*CONN
*I U4727:Q O
*I U4724:IN2 I
*CAP
1 U4727:Q 3.215e-04
2 U4724:IN2 1.856e-04
3 n5224:0 5.071e-04
*RES
1 n5224:0 U4724:IN2 1.737e-03
2 U4727:Q n5224:0 3.290e-03
*END

*D_NET n5225 3.320e-03
*CONN
*I U4724:IN3 I
*I U4726:Q O
*CAP
1 U4724:IN3 4.700e-04
2 U4726:Q 1.190e-03
3 n5225:0 1.660e-03
*RES
1 n5225:0 U4724:IN3 4.768e-03
2 U4726:Q n5225:0 1.160e-02
*END

*D_NET n5226 1.610e-03
*CONN
*I U4724:IN4 I
*I U4725:Q O
*CAP
1 U4724:IN4 1.302e-05
2 U4725:Q 7.918e-04
3 n5226:0 8.048e-04
*RES
1 n5226:0 U4724:IN4 1.051e-04
2 U4725:Q n5226:0 7.561e-03
*END

*D_NET n5222 1.143e-03
*CONN
*I U4723:IN2 I
*I U4724:Q O
*CAP
1 U4723:IN2 7.298e-06
2 U4724:Q 5.644e-04
3 n5222:0 5.717e-04
*RES
1 n5222:0 U4723:IN2 6.024e-05
2 U4724:Q n5222:0 5.589e-03
*END

*D_NET n5220 1.218e-03
*CONN
*I U4720:IN1 I
*I U4722:Q O
*CAP
1 U4720:IN1 1.710e-04
2 U4722:Q 4.381e-04
3 n5220:0 6.092e-04
*RES
1 n5220:0 U4720:IN1 1.567e-03
2 U4722:Q n5220:0 4.247e-03
*END

*D_NET n5221 1.215e-03
*CONN
*I U4720:IN2 I
*I U4721:Q O
*CAP
1 U4720:IN2 5.495e-04
2 U4721:Q 5.780e-05
3 n5221:0 6.073e-04
*RES
1 n5221:0 U4720:IN2 5.440e-03
2 U4721:Q n5221:0 4.886e-04
*END

*D_NET n5219 7.612e-04
*CONN
*I U4719:IN2 I
*I U4720:QN O
*CAP
1 U4719:IN2 2.155e-04
2 U4720:QN 1.651e-04
3 n5219:0 3.806e-04
*RES
1 n5219:0 U4719:IN2 2.020e-03
2 U4720:QN n5219:0 1.570e-03
*END

*D_NET n4814 8.940e-04
*CONN
*I U4785:IN2 I
*I U93:IN I
*I U4717:IN1 I
*I U4786:QN O
*CAP
1 U4785:IN2 1.109e-04
2 U93:IN 8.881e-05
3 U4717:IN1 1.964e-05
4 U4786:QN 6.666e-06
5 n4814:0 3.166e-04
6 n4814:1 1.945e-05
7 n4814:2 3.319e-04
*RES
1 n4814:2 U4785:IN2 1.056e-03
2 n4814:0 U93:IN 8.453e-04
3 n4814:0 U4717:IN1 1.967e-04
4 n4814:2 n4814:0 2.084e-03
5 U4786:QN n4814:1 6.674e-05
6 n4814:1 n4814:2 1.217e-04
*END

*D_NET n5207 1.255e-02
*CONN
*I U4715:QN O
*I U4714:IN I
*I U4701:IN3 I
*I U4712:IN2 I
*CAP
1 U4715:QN 3.055e-05
2 U4714:IN 1.829e-05
3 U4701:IN3 6.085e-03
4 U4712:IN2 1.278e-04
5 n5207:0 1.401e-04
6 n5207:1 4.863e-04
7 n5207:2 5.660e-03
*RES
1 n5207:1 U4714:IN 1.723e-04
2 n5207:2 U4701:IN3 5.854e-02
3 n5207:0 U4712:IN2 1.329e-03
4 n5207:1 n5207:0 1.154e-04
5 U4701:IN3 n5207:1 4.739e-03
6 U4715:QN n5207:2 2.878e-04
*END

*D_NET n5212 2.898e-03
*CONN
*I U4703:IN5 I
*I U4714:QN O
*I U4708:IN1 I
*I U4713:S I
*CAP
1 U4703:IN5 6.788e-05
2 U4714:QN 6.900e-04
3 U4708:IN1 2.886e-04
4 U4713:S 2.408e-04
5 n5212:0 2.809e-04
6 n5212:1 6.914e-04
7 n5212:2 6.389e-04
*RES
1 n5212:0 U4703:IN5 7.324e-04
2 n5212:1 U4708:IN1 3.033e-03
3 n5212:1 U4713:S 2.598e-03
4 U4714:QN n5212:0 2.238e-03
5 n5212:2 n5212:1 1.702e-03
6 U4714:QN n5212:2 5.146e-03
*END

*D_NET n5217 2.327e-04
*CONN
*I U4713:Q O
*I U4711:IN1 I
*CAP
1 U4713:Q 2.126e-05
2 U4711:IN1 9.511e-05
3 n5217:0 1.164e-04
*RES
1 n5217:0 U4711:IN1 9.247e-04
2 U4713:Q n5217:0 2.262e-04
*END

*D_NET n5214 2.467e-03
*CONN
*I U4705:IN I
*I U4712:QN O
*I U4707:IN1 I
*I U4711:IN2 I
*CAP
1 U4705:IN 1.875e-04
2 U4712:QN 1.254e-05
3 U4707:IN1 6.227e-05
4 U4711:IN2 3.727e-04
5 n5214:0 3.332e-04
6 n5214:1 3.853e-04
7 n5214:2 5.149e-04
8 n5214:3 5.983e-04
*RES
1 n5214:0 U4705:IN 2.046e-03
2 n5214:2 U4707:IN1 6.219e-04
3 n5214:1 U4711:IN2 4.066e-03
4 n5214:3 n5214:0 1.455e-03
5 n5214:2 n5214:1 1.252e-04
6 n5214:3 n5214:2 4.801e-03
7 U4712:QN n5214:3 1.252e-04
*END

*D_NET n5208 5.520e-03
*CONN
*I U4709:QN O
*I U4701:IN5 I
*I U4707:IN2 I
*CAP
1 U4709:QN 4.211e-04
2 U4701:IN5 1.716e-03
3 U4707:IN2 6.230e-04
4 n5208:0 1.056e-03
5 n5208:1 1.704e-03
*RES
1 n5208:1 U4701:IN5 1.375e-02
2 n5208:0 U4707:IN2 6.677e-03
3 U4701:IN5 n5208:0 4.462e-03
4 U4709:QN n5208:1 4.334e-03
*END

*D_NET n5215 5.857e-04
*CONN
*I U4707:IN3 I
*I U4708:QN O
*CAP
1 U4707:IN3 2.864e-04
2 U4708:QN 6.444e-06
3 n5215:0 2.928e-04
*RES
1 n5215:0 U4707:IN3 2.913e-03
2 U4708:QN n5215:0 5.560e-05
*END

*D_NET n5210 4.521e-04
*CONN
*I U4703:IN1 I
*I U4705:QN O
*CAP
1 U4703:IN1 1.666e-04
2 U4705:QN 5.947e-05
3 n5210:0 2.261e-04
*RES
1 n5210:0 U4703:IN1 1.686e-03
2 U4705:QN n5210:0 5.725e-04
*END

*D_NET n5211 7.483e-03
*CONN
*I U4704:Q O
*I U4703:IN3 I
*CAP
1 U4704:Q 2.974e-03
2 U4703:IN3 7.677e-04
3 n5211:0 3.741e-03
*RES
1 n5211:0 U4703:IN3 8.281e-03
2 U4704:Q n5211:0 3.251e-02
*END
